12

C           -1.134198030305     0.805346729417     0.000914008604
C           -1.264572536470    -0.579590849294    -0.001293968529
C            0.130352047792     1.384937065589     0.002207734743
C            1.264572415280     0.579591372503     0.001293376143
C            1.134197667199    -0.805347205288    -0.000914603272
C           -0.130351758760    -1.384937092428    -0.002205705978
H           -2.017154985096     1.432300197532     0.001620451133
H           -2.249007190558    -1.030773979344    -0.002303987026
H            0.231819134123     2.463075459293     0.003926734614
H            2.249007791668     1.030772818072     0.002297540661
H           -0.231818076276    -2.463075520895    -0.003923913453
H            2.017155651109    -1.432299218731    -0.001626848033
