5

H            0.511646648382    -0.507428807526    -1.598455508319
C            0.527077884435    -0.519786290824    -0.514304160875
F            0.518924046562    -1.792022414935    -0.070673379624
Cl           1.994922083545     0.297626851851     0.043888406235
Br          -1.095555897845     0.385040168794     0.096182558273
